100

 O    0.0910117276347    4.2254855892828    0.9530177857058 
 O    6.4768873273216    2.9464970233542    5.0039185998070 
 O    0.3165176722389    8.1127409539952    0.5896960908981 
 O    5.0240629691373    2.9417171061362    8.6573590809498 
 O    5.3147005159756    3.6185228573717    2.7136687042879 
 O    8.1414261505858    8.0080637220049    0.4163480231660 
 O    1.5220561177946    1.0780737152994    5.4924967542653 
 O    7.5825858427766    4.8830058435008    4.1007985482394 
 O    1.1058455467316    2.3343692191539    2.3242872293913 
 O    2.3239628026654    5.0039427284799    6.2635399746344 
 O    1.3670516251402    5.7572042917049    2.4608113274518 
 O    3.8745227453405    6.4552796036814    7.9660718785877 
 O    6.0046499777183    5.7353333215320    0.9158457124832 
 O    0.6274834000956    5.2152431202289    0.6696109785943 
 O    1.6674585734277    7.2463896562971    4.8401868474869 
 O    1.6945431443444    4.2662761501187    5.4928670887285 
 O    5.0726388676990    6.1852990023265    3.0578998292223 
 O    2.8528711754131    2.4279988626166    6.8217225727748 
 O    3.9931589116526    3.7559483014390    5.0239387109902 
 O    1.6808750192716    1.6995638060744    0.1095877332247 
 O    6.1482208230783    3.0651668071432    1.1959432766210 
 O    2.5362591573520    6.8104723756903    1.0763259679794 
 O    6.0855908310466    0.4750100684901    7.0787611684838 
 O    3.2893559768663    4.4366068685608    3.3765431742875 
 O    8.0608957558060    2.1255238069135    0.7775078973228 
 O    6.5751186792270    7.1363730291333    7.8565832807720 
 O    7.7567695578442    4.4494654631014    8.9781937071430 
 O    6.9398042314573    2.7793631281512    7.6775275619032 
 O    5.5491862128003    7.5185440070850    7.3229107151099 
 O    8.6883972298140    6.3308988250820    4.6016946161517 
 O    7.9565864183008    4.2054891549247    5.0260972783369 
 O    3.3063351523040    2.7772236287820    4.9429974058142 
 O    1.8456787353306    1.0040098952341    4.3240178718281 
 O    6.5981085149412    6.3109426051788    5.5741916512149 
 O    5.2786808354016    5.4773064442981    4.0342185930427 
 O    4.1460033006777    8.2753800479468    8.8294866173839 
 O    7.4784776679153    0.0932003880454    2.0481323988535 
 O    1.6475339828710    1.6278126334582    7.9244408808296 
 O    7.6989849105930    3.5865798380880    2.5861885208367 
 O    7.8420484212345    6.8694011015905    2.2396686060175 
 O    6.2029335378244    1.9946961541640    1.6190891693141 
 O    0.0607918751503    6.6346695995583    7.8580600097770 
 O    3.2739619739074    8.7316906660259    5.1352238556891 
 O    1.1098443094598    8.9262185575244    7.5453170741232 
 O    3.7768024333056    6.2481391035888    4.9069732971317 
 O    4.9438582662573    0.7400376949167    7.3824500681374 
 O    2.8463457701141    0.0601427505898    6.2166022051146 
 O    4.2285592388096    7.7673085464794    2.3286846122554 
 O    1.1689157288976    6.9280748045880    8.3126619201867 
 O    0.3753707588161    1.3978280637541    2.0998845163943 
 O    7.7121812161850    3.4267881986506    6.9828954205906 
 O    3.6689704902918    6.8322208047378    1.0758353516299 
 O    0.9646549452528    4.7605053843682    3.1503653319933 
 O    5.5174400184216    3.0220822149879    5.8584360937923 
 O    7.1248207266047    5.5810041606109    6.6006828726406 
 O    8.7666842905983    8.8465656511871    4.2707941763474 
 O    2.9218097761658    0.5079361278642    1.3191392198992 
 O    2.5368599341970    3.3569290935442    1.2868104129573 
 O    5.9957200191261    0.4011730760243    0.1957050454069 
 O    3.2879747684879    4.7686896133386    0.1216865908615 
 O    4.4392393338882    4.8175469227149    0.4200554344278 
 O    8.8841543280883    2.1820163501739    8.8938288414980 
 O    0.4695045740626    4.5604619674208    7.2091386904473 
 O    8.1367631715804    7.8666112295368    6.5921322854677 
 O    5.9654670010126    4.7629014429226    7.5007166229428 
 O    7.7132483903371    5.6455352571086    2.0650249098817 
 O    4.1166386153540    1.0916092682255    3.0976097508413 
 O    6.7180686856993    7.2744409104135    3.7091254820014 
 O    5.9965906394819    8.1788022782783    4.0047526034405 
 O    7.8490004612335    5.6644269235770    8.8277921881052 
 O    4.2621130051581    1.8674899712233    8.7704283015325 
 O    3.3274598506378    3.4712441489022    7.4980548778775 
 O    4.1897147864813    7.2634511584053    5.3474822551599 
 O    6.4593520176022    8.6998125320874    1.5463132962397 
 O    4.7967836122577    1.0697668548340    5.4145175825771 
 O    1.4059200254022    8.8766811268280    2.6879527803806 
 O    5.6828324018044    2.6024855868240    3.3237319254856 
 O    4.9961403109069    5.0681922334239    6.8753068428060 
 O    7.7921672247261    2.4906686172554    3.3173872593096 
 O    3.1382139696413    7.9336619197795    2.9193078948548 
 O    1.1733006407622    7.8280863239781    5.7048394685370 
 O    7.8475888886824    0.5061984115655    3.8534414243963 
 O    0.0122293512837    5.6766966700547    5.5137743578972 
 O    2.8287462980060    6.8202095152061    7.5441842916694 
 O    7.2688637529236    8.1826546423168    5.8536947643770 
 O    1.4861156913261    2.8643314817282    3.7483119831201 
 O    3.0419243885045    5.3200497614312    2.6582191161371 
 O    3.0305330341649    8.5284933513812    8.4030975418666 
 O    5.9613596140715    6.9528265756434    0.7925824438817 
 O    4.0550666701486    0.2565193322085    1.4377067957141 
 O    8.8785113815577    0.3490626431720    7.7939085558073 
 O    3.4297400300085    2.7204564524240    1.5614660124693 
 O    8.2670525832213    1.0553155871410    6.4066348435138 
 O    6.0186582538207    0.9311507014240    5.2994567072279 
 O    0.6047841928913    7.9293740648240    2.6631097360680 
 O    7.1239300442062    0.5335003212778    8.8588652196201 
 O    3.0133475450182    1.5895079585209    2.9135535226548 
 O    0.5299433753359    2.4687492089975    4.4075157318999 
 O    1.2080173729980    3.6532157320433    7.8705656208102 
 O    8.6853981351754    2.1727275340529    6.2282232788796 
